@<TRIPOS>MOLECULE
4s1g_ligand
61 63 1
SMALL
GASTEIGER

@<TRIPOS>DICT

@<TRIPOS>ATOM
      1 C1         33.0980   58.2780   41.9270 C.3       1 43T         0.0000
      2 C2         34.1240   59.3160   41.5530 C.2       1 43T         0.0000
      3 N3         33.9110   60.6020   42.0150 N.am      1 43T         1.0000
      4 C4         32.7210   60.9360   42.6570 C.2       1 43T         0.0000
      5 N5         31.9580   59.9240   43.1900 N.pl3     1 43T         0.0000
      6 C6         32.3700   58.5410   43.2350 C.3       1 43T         0.0000
      7 C7         31.0610   57.7580   43.2230 C.3       1 43T         0.0000
      8 C8         33.2430   58.2340   44.4730 C.3       1 43T         0.0000
      9 N9         32.3230   62.1620   42.7090 N.pl3     1 43T         0.0000
     10 C10        34.8910   61.6150   41.6680 C.3       1 43T         0.0000
     11 O11        35.1050   58.9820   40.9150 O.2       1 43T         0.0000
     12 C12        32.7040   58.8580   45.7560 C.3       1 43T         0.0000
     13 C13        33.4640   56.7370   44.7220 C.3       1 43T         0.0000
     14 C14        36.2330   61.4670   42.3220 C.ar      1 43T         0.0000
     15 C15        36.3740   60.9530   43.6060 C.ar      1 43T         0.0000
     16 C16        37.6260   60.8410   44.1800 C.ar      1 43T         0.0000
     17 C17        38.7370   61.2490   43.4750 C.ar      1 43T         0.0000
     18 C18        38.5980   61.7370   42.1920 C.ar      1 43T         0.0000
     19 C19        37.3540   61.8510   41.6050 C.ar      1 43T         0.0000
     20 F20        39.7140   62.1080   41.5470 F         1 43T         0.0000
     21 C21        37.8500   60.3470   45.5590 C.2       1 43T         0.0000
     22 O22        38.9840   60.0610   45.9360 O.2       1 43T         0.0000
     23 N23        36.7380   60.2900   46.3720 N.am      1 43T         0.0000
     24 C24        36.8650   59.7660   47.7270 C.3       1 43T         0.0000
     25 C25        37.0910   58.2790   47.7400 C.ar      1 43T         0.0000
     26 C26        37.8450   57.7120   48.7560 C.ar      1 43T         0.0000
     27 C27        38.0550   56.3480   48.7690 C.ar      1 43T         0.0000
     28 C28        37.5280   55.5270   47.7840 C.ar      1 43T         0.0000
     29 C29        36.7910   56.0850   46.7570 C.ar      1 43T         0.0000
     30 C30        36.5790   57.4550   46.7420 C.ar      1 43T         0.0000
     31 C31        35.5970   60.0900   48.4920 C.3       1 43T         0.0000
     32 H1         33.6083   57.3070   42.0091 H         1 43T         0.0000
     33 H2         32.3493   58.2319   41.1224 H         1 43T         0.0000
     34 H3         31.0366   60.1673   43.5809 H         1 43T         0.0000
     35 H4         30.5187   57.9359   44.1634 H         1 43T         0.0000
     36 H5         31.2769   56.6842   43.1218 H         1 43T         0.0000
     37 H6         30.4433   58.0893   42.3753 H         1 43T         0.0000
     38 H7         34.2282   58.6820   44.2765 H         1 43T         0.0000
     39 H8         32.9050   62.9099   42.3055 H         1 43T         0.0000
     40 H9         31.4232   62.3929   43.1540 H         1 43T         0.0000
     41 H10        34.4811   62.5949   41.9538 H         1 43T         0.0000
     42 H11        35.0398   61.5834   40.5786 H         1 43T         0.0000
     43 H12        33.3680   58.6027   46.5950 H         1 43T         0.0000
     44 H13        31.6944   58.4701   45.9564 H         1 43T         0.0000
     45 H14        32.6609   59.9512   45.6421 H         1 43T         0.0000
     46 H15        33.8535   56.2667   43.8070 H         1 43T         0.0000
     47 H16        32.5089   56.2663   44.9982 H         1 43T         0.0000
     48 H17        34.1881   56.6042   45.5393 H         1 43T         0.0000
     49 H18        35.4970   60.6383   44.1600 H         1 43T         0.0000
     50 H19        39.7198   61.1867   43.9280 H         1 43T         0.0000
     51 H20        37.2557   62.2359   40.5964 H         1 43T         0.0000
     52 H21        35.8509   60.6056   46.0351 H         1 43T         0.0000
     53 H22        37.7199   60.2551   48.2167 H         1 43T         0.0000
     54 H23        38.2670   58.3362   49.5354 H         1 43T         0.0000
     55 H24        38.6444   55.9094   49.5661 H         1 43T         0.0000
     56 H25        37.6928   54.4562   47.8192 H         1 43T         0.0000
     57 H26        36.3832   55.4586   45.9719 H         1 43T         0.0000
     58 H27        36.0022   57.8937   45.9358 H         1 43T         0.0000
     59 H28        35.6779   59.7005   49.5175 H         1 43T         0.0000
     60 H29        34.7365   59.6241   47.9896 H         1 43T         0.0000
     61 H30        35.4566   61.1805   48.5240 H         1 43T         0.0000
@<TRIPOS>BOND
     1    1    2 1
     2    1   32 1
     3    1   33 1
     4    1    6 1
     5    2    3 am
     6    2   11 2
     7    3   10 1
     8    3    4 2
     9    4    5 1
    10    4    9 1
    11    5    6 1
    12    5   34 1
    13    6    7 1
    14    6    8 1
    15    7   37 1
    16    7   35 1
    17    7   36 1
    18    8   12 1
    19    8   38 1
    20    8   13 1
    21    9   39 1
    22    9   40 1
    23   10   14 1
    24   10   42 1
    25   10   41 1
    26   12   44 1
    27   12   45 1
    28   12   43 1
    29   13   46 1
    30   13   48 1
    31   13   47 1
    32   14   19 ar
    33   14   15 ar
    34   15   16 ar
    35   15   49 1
    36   16   21 1
    37   16   17 ar
    38   17   50 1
    39   17   18 ar
    40   18   19 ar
    41   18   20 1
    42   19   51 1
    43   21   23 am
    44   21   22 2
    45   23   24 1
    46   23   52 1
    47   24   25 1
    48   24   31 1
    49   24   53 1
    50   25   30 ar
    51   25   26 ar
    52   26   27 ar
    53   26   54 1
    54   27   28 ar
    55   27   55 1
    56   28   29 ar
    57   28   56 1
    58   29   30 ar
    59   29   57 1
    60   30   58 1
    61   31   60 1
    62   31   59 1
    63   31   61 1
@<TRIPOS>SUBSTRUCTURE
1 43T 1
@<TRIPOS>COMMENT
0.0000



