@<TRIPOS>MOLECULE
5d3n_ligand
48 49 1
SMALL
GASTEIGER

@<TRIPOS>DICT

@<TRIPOS>ATOM
      1 C15        -5.9200    9.7100   -1.4970 C.ar      1 L40         0.0000
      2 C14        -5.3590   10.2010   -0.3230 C.ar      1 L40         0.0000
      3 C12        -6.8940    8.8350    0.9590 C.ar      1 L40         0.0000
      4 C4        -12.4410    5.6730    0.5550 C.2       1 L40         0.0000
      5 C3        -11.4450    6.5850    0.2160 C.2       1 L40         0.0000
      6 C11        -7.4890    8.3350   -0.2120 C.ar      1 L40         0.0000
      7 C16        -6.9880    8.7880   -1.4570 C.ar      1 L40         0.0000
      8 C13        -5.8550    9.7630    0.9150 C.ar      1 L40         0.0000
      9 C7        -10.2480    6.0770    0.9430 C.2       1 L40         0.0000
     10 C5        -11.8860    4.6800    1.4800 C.2       1 L40         1.0000
     11 C27       -13.8650    5.6700    0.1570 C.2       1 L40         0.0000
     12 C8         -8.9100    6.7430    0.9130 C.2       1 L40         0.0000
     13 C26       -12.5660    3.5150    2.1340 C.3       1 L40         0.0000
     14 C29       -14.4890    7.0130    0.0130 C.3       1 L40         0.0000
     15 C1        -11.5350    7.1900   -2.1280 C.3       1 L40         0.0000
     16 C2        -11.5190    7.7820   -0.7250 C.3       1 L40         0.0000
     17 C22        -4.4720    7.9850    3.3720 C.3       1 L40         0.0000
     18 N6        -10.5940    4.9960    1.6550 N.2       1 L40         0.0000
     19 N10        -8.4660    7.3650   -0.1710 N.am      1 L40         0.0000
     20 N21        -4.0990    9.2900    2.8500 N.am      1 L40         0.0000
     21 O28       -14.4990    4.6460    0.0340 O.2       1 L40         0.0000
     22 O9         -8.3130    6.7960    1.9660 O.2       1 L40         0.0000
     23 O19        -4.5900   11.5840    1.9710 O.2       1 L40         0.0000
     24 O20        -6.2450   10.5580    3.2430 O.2       1 L40         0.0000
     25 C17        -7.5270    8.3340   -2.7920 C.3       1 L40         0.0000
     26 S18        -5.2150   10.3200    2.2740 S.o2      1 L40         0.0000
     27 H1         -5.5324   10.0393   -2.4543 H         1 L40         0.0000
     28 H2         -4.5453   10.9161   -0.3636 H         1 L40         0.0000
     29 H3         -7.2527    8.4898    1.9219 H         1 L40         0.0000
     30 H4        -11.8454    2.9793    2.7694 H         1 L40         0.0000
     31 H5        -12.9505    2.8335    1.3609 H         1 L40         0.0000
     32 H6        -13.4010    3.8773    2.7517 H         1 L40         0.0000
     33 H7        -15.5419    6.8981   -0.2838 H         1 L40         0.0000
     34 H8        -13.9516    7.5864   -0.7566 H         1 L40         0.0000
     35 H9        -14.4349    7.5473    0.9730 H         1 L40         0.0000
     36 H10       -11.5881    8.0021   -2.8680 H         1 L40         0.0000
     37 H11       -12.4113    6.5346   -2.2395 H         1 L40         0.0000
     38 H12       -10.6172    6.6058   -2.2900 H         1 L40         0.0000
     39 H13       -10.6418    8.4321   -0.5912 H         1 L40         0.0000
     40 H14       -12.4360    8.3609   -0.5407 H         1 L40         0.0000
     41 H15        -3.5697    7.4528    3.7075 H         1 L40         0.0000
     42 H16        -4.9689    7.4025    2.5822 H         1 L40         0.0000
     43 H17        -5.1595    8.1125    4.2212 H         1 L40         0.0000
     44 H19        -8.8807    7.1045   -1.0429 H         1 L40         0.0000
     45 H20        -3.1358    9.5587    2.8456 H         1 L40         0.0000
     46 H21        -6.9700    8.8304   -3.6003 H         1 L40         0.0000
     47 H22        -8.5926    8.5969   -2.8658 H         1 L40         0.0000
     48 H23        -7.4111    7.2439   -2.8827 H         1 L40         0.0000
@<TRIPOS>BOND
     1    1    7 ar
     2    1   27 1
     3    1    2 ar
     4    2    8 ar
     5    2   28 1
     6    3    6 ar
     7    3    8 ar
     8    3   29 1
     9    4    5 2
    10    4   10 1
    11    4   11 1
    12    5    9 1
    13    5   16 1
    14    6    7 ar
    15    6   19 1
    16    7   25 1
    17    8   26 1
    18    9   12 1
    19    9   18 2
    20   10   13 1
    21   10   18 1
    22   11   14 1
    23   11   21 2
    24   12   19 am
    25   12   22 2
    26   13   30 1
    27   13   31 1
    28   13   32 1
    29   14   33 1
    30   14   34 1
    31   14   35 1
    32   15   16 1
    33   15   36 1
    34   15   37 1
    35   15   38 1
    36   16   39 1
    37   16   40 1
    38   17   20 1
    39   17   41 1
    40   17   42 1
    41   17   43 1
    42   19   44 1
    43   20   26 1
    44   20   45 1
    45   23   26 2
    46   24   26 2
    47   25   46 1
    48   25   48 1
    49   25   47 1
@<TRIPOS>SUBSTRUCTURE
1 L40 1
@<TRIPOS>COMMENT
0.0000



