@<TRIPOS>MOLECULE
6ei5_ligand
53 57 1
SMALL
GASTEIGER

@<TRIPOS>DICT

@<TRIPOS>ATOM
      1 C1        -33.2090  -10.4220  -26.0720 C.ar      1 B5Q         0.0000
      2 C2        -31.6450  -11.0580  -24.1990 C.2       1 B5Q         0.0000
      3 O4        -31.1620  -10.0410  -23.7220 O.2       1 B5Q         0.0000
      4 C7        -32.1770   -9.7700  -26.7890 C.ar      1 B5Q         0.0000
      5 C9        -34.7890   -9.8760  -27.8910 C.ar      1 B5Q         0.0000
      6 C11       -32.4580   -9.1940  -28.0270 C.ar      1 B5Q         0.0000
      7 C12       -33.7690   -9.2660  -28.5710 C.ar      1 B5Q         0.0000
      8 C13       -35.2630  -11.6390  -24.7570 C.ar      1 B5Q         0.0000
      9 C15       -31.3660   -8.5220  -28.7860 C.ar      1 B5Q         0.0000
     10 C16       -29.5420  -12.3790  -23.7670 C.2       1 B5Q         0.0000
     11 C19       -29.0240  -13.6850  -24.3360 C.ar      1 B5Q         0.0000
     12 C20       -27.7640  -14.2620  -24.2980 C.ar      1 B5Q         0.0000
     13 C21       -27.5610  -15.4920  -24.8940 C.ar      1 B5Q         0.0000
     14 C22       -28.6080  -16.1540  -25.5390 C.ar      1 B5Q         0.0000
     15 C24       -30.3380   -9.3330  -29.2990 C.ar      1 B5Q         0.0000
     16 C27       -30.2570   -6.5860  -29.7450 C.ar      1 B5Q         0.0000
     17 C31       -31.2790   -5.9340  -26.2650 C.3       1 B5Q         0.0000
     18 N3        -30.9210  -12.2040  -24.2440 N.2       1 B5Q         2.0000
     19 C5        -33.0080  -11.0250  -24.7940 C.ar      1 B5Q         0.0000
     20 C6        -34.5320  -10.4750  -26.6340 C.ar      1 B5Q         0.0000
     21 N8        -34.0470  -11.6230  -24.2000 N.ar      1 B5Q         0.0000
     22 N10       -35.5010  -11.0970  -25.9440 N.ar      1 B5Q         0.0000
     23 N14       -36.3140  -12.2510  -24.1020 N.pl3     1 B5Q         0.0000
     24 C17       -31.3260  -13.5120  -24.8070 C.2       1 B5Q         0.0000
     25 C18       -30.0810  -14.3520  -24.9510 C.ar      1 B5Q         0.0000
     26 C23       -29.8690  -15.5830  -25.5610 C.ar      1 B5Q         0.0000
     27 C25       -29.2800   -8.7790  -30.0100 C.ar      1 B5Q         0.0000
     28 C26       -29.2460   -7.4060  -30.2470 C.ar      1 B5Q         0.0000
     29 C28       -31.3220   -7.1220  -29.0220 C.ar      1 B5Q         0.0000
     30 C29       -32.3600   -6.1410  -28.4960 C.3       1 B5Q         0.0000
     31 N30       -32.5140   -6.2200  -27.0260 N.4       1 B5Q         1.0000
     32 H1        -31.1752   -9.7190  -26.3782 H         1 B5Q         0.0000
     33 H2        -35.7874   -9.9002  -28.3125 H         1 B5Q         0.0000
     34 H3        -33.9653   -8.8293  -29.5435 H         1 B5Q         0.0000
     35 H4        -28.9923  -11.6949  -23.1221 H         1 B5Q         0.0000
     36 H5        -26.9444  -13.7522  -23.8046 H         1 B5Q         0.0000
     37 H6        -26.5782  -15.9482  -24.8606 H         1 B5Q         0.0000
     38 H7        -28.4342  -17.1098  -26.0199 H         1 B5Q         0.0000
     39 H8        -30.3712  -10.4044  -29.1378 H         1 B5Q         0.0000
     40 H9        -30.2139   -5.5170  -29.9195 H         1 B5Q         0.0000
     41 H10       -31.4852   -6.0151  -25.1875 H         1 B5Q         0.0000
     42 H11       -30.9332   -4.9158  -26.4965 H         1 B5Q         0.0000
     43 H12       -30.4999   -6.6584  -26.5447 H         1 B5Q         0.0000
     44 H13       -36.1644  -12.6821  -23.1786 H         1 B5Q         0.0000
     45 H14       -37.2473  -12.2763  -24.5370 H         1 B5Q         0.0000
     46 H15       -32.3390  -13.8133  -25.0696 H         1 B5Q         0.0000
     47 H16       -30.6887  -16.0944  -26.0525 H         1 B5Q         0.0000
     48 H17       -28.4827   -9.4137  -30.3795 H         1 B5Q         0.0000
     49 H18       -28.4339   -6.9752  -30.8214 H         1 B5Q         0.0000
     50 H19       -33.3290   -6.3657  -28.9656 H         1 B5Q         0.0000
     51 H20       -32.0502   -5.1203  -28.7647 H         1 B5Q         0.0000
     52 H21       -33.2174   -5.5542  -26.7468 H         1 B5Q         0.0000
     53 H22       -32.8204   -7.1511  -26.7910 H         1 B5Q         0.0000
@<TRIPOS>BOND
     1    1    4 ar
     2    1   19 ar
     3    1   20 ar
     4    2    3 2
     5    2   18 am
     6    2   19 1
     7    4   32 1
     8    4    6 ar
     9    5   20 ar
    10    5   33 1
    11    5    7 ar
    12    6    7 ar
    13    6    9 1
    14    7   34 1
    15    8   21 ar
    16    8   22 ar
    17    8   23 1
    18    9   15 ar
    19    9   29 ar
    20   10   18 2
    21   10   11 1
    22   10   35 1
    23   11   25 ar
    24   11   12 ar
    25   12   36 1
    26   12   13 ar
    27   13   14 ar
    28   13   37 1
    29   14   38 1
    30   14   26 ar
    31   15   27 ar
    32   15   39 1
    33   16   29 ar
    34   16   40 1
    35   16   28 ar
    36   17   31 1
    37   17   41 1
    38   17   42 1
    39   17   43 1
    40   18   24 2
    41   19   21 ar
    42   20   22 ar
    43   23   45 1
    44   23   44 1
    45   24   25 1
    46   24   46 1
    47   25   26 ar
    48   26   47 1
    49   27   28 ar
    50   27   48 1
    51   28   49 1
    52   29   30 1
    53   30   31 1
    54   30   50 1
    55   30   51 1
    56   31   52 1
    57   31   53 1
@<TRIPOS>SUBSTRUCTURE
1 B5Q 1
@<TRIPOS>COMMENT
0.0000



