@<TRIPOS>MOLECULE
CHEMBL366356
 32 33 0 0 0
SMALL
USER_CHARGES

@<TRIPOS>ATOM
      1 C1         -0.0247    1.3907    0.1913 C.3     1  <0>1       -0.0731
      2 C2          1.1767    2.0980    0.0924 C.3     1  <0>1       -0.0901
      3 C3          2.3860    1.4052   -0.0117 C.3     1  <0>1       -0.0787
      4 C4          2.3909    0.0231   -0.0167 C.3     1  <0>1        0.0847
      5 C5          1.1925   -0.6790    0.0814 C.3     1  <0>1        0.0891
      6 C6         -0.0138    0.0086    0.1858 C.3     1  <0>1        0.0872
      7 O1         -1.1825   -0.6803    0.2820 O.2     1  <0>1       -0.4852
      8 O2          1.2002   -2.0378    0.0758 O.2     1  <0>1       -0.4786
      9 O3          3.5674   -0.6517   -0.1181 O.2     1  <0>1       -0.4793
     10 C7          1.1682    3.5727    0.0976 C.2     1  <0>1        0.5066
     11 O4          0.1161    4.1740    0.1878 O.2     1  <0>1       -0.4757
     12 O5          2.3272    4.2534    0.0022 O.3     1  <0>1       -0.2821
     13 C8          2.2655    5.6084   -0.0951 C.3     1  <0>1        0.0502
     14 C9          2.2763    6.2125   -1.3380 C.3     1  <0>1       -0.0741
     15 C10         2.2129    7.6059   -1.4371 C.3     1  <0>1       -0.1101
     16 C11         2.1388    8.3842   -0.2768 C.3     1  <0>1       -0.0853
     17 C12         2.1284    7.7747    0.9625 C.3     1  <0>1        0.0731
     18 C13         2.1859    6.3858    1.0580 C.3     1  <0>1        0.0764
     19 O6          2.1695    5.7891    2.2780 O.2     1  <0>1       -0.4866
     20 O7          2.0568    8.5307    2.0908 O.2     1  <0>1       -0.4902
     21 C14         2.2247    8.2527   -2.7598 C.2     1  <0>1        0.5233
     22 O8          2.2900    7.5710   -3.7736 O.co2   1  <0>1       -0.6786
     23 O9          2.1692    9.4719   -2.8451 O.co2   1  <0>1       -0.6784
     24 H1         -0.9602    1.9235    0.2764 H       1  <0>1        0.1539
     25 H2          3.3158    1.9493   -0.0886 H       1  <0>1        0.1557
     26 H3         -1.5946   -0.8767   -0.5705 H       1  <0>1        0.3976
     27 H4          1.2764   -2.4344    0.9545 H       1  <0>1        0.3936
     28 H5          3.9817   -0.8498    0.7329 H       1  <0>1        0.3909
     29 H6          2.3340    5.6091   -2.2319 H       1  <0>1        0.1436
     30 H7          2.0901    9.4606   -0.3502 H       1  <0>1        0.1458
     31 H8          3.0465    5.6584    2.6637 H       1  <0>1        0.3866
     32 H9          1.1541    8.7076    2.3891 H       1  <0>1        0.3878
@<TRIPOS>BOND
     1     1     6   ar
     2     1     2   ar
     3     1    24    1
     4     2     3   ar
     5     2    10    1
     6     3     4   ar
     7     3    25    1
     8     4     5   ar
     9     4     9    1
    10     5     6   ar
    11     5     8    1
    12     6     7    1
    13     7    26    1
    14     8    27    1
    15     9    28    1
    16    10    11    2
    17    10    12    1
    18    12    13    1
    19    13    18   ar
    20    13    14   ar
    21    14    15   ar
    22    14    29    1
    23    15    16   ar
    24    15    21    1
    25    16    17   ar
    26    16    30    1
    27    17    18   ar
    28    17    20    1
    29    18    19    1
    30    19    31    1
    31    20    32    1
    32    21    22   ar
    33    21    23   ar
